tests/fixtures/psse_hvdc.raw
@!IC,SBASE,REV,XFRRAT,NXFRAT,BASFRQ
0,   100.00, 33, 0, 1, 60.00     / hand-written OpenEMT importer HVDC case (not a vendor file)
OPENEMT IMPORTER HVDC-AS-SCHEDULED-INJECTION COVERAGE
ELEVEN RADIAL 230 KV SPURS OFF ONE SLACK, EACH CARRYING ONE CONVERTER TERMINAL
0 / END OF SYSTEM-WIDE DATA, BEGIN BUS DATA
     1,'HV-SLACK    ', 230.0000,3,   1,   1,   1,1.00000,   0.0000
     2,'T2-MW-REC   ', 230.0000,1,   1,   1,   1,0.98000,  -2.3000
     3,'T2-MW-INV   ', 230.0000,1,   1,   1,   1,1.02000,   2.3000
     4,'T2-AMP-REC  ', 230.0000,1,   1,   1,   1,0.98000,  -2.3000
     5,'T2-AMP-INV  ', 230.0000,1,   1,   1,   1,1.02000,   2.3000
     6,'T2-OFF-REC  ', 230.0000,1,   1,   1,   1,1.00000,   0.0000
     7,'T2-OFF-INV  ', 230.0000,1,   1,   1,   1,1.00000,   0.0000
     8,'VSC-MW-INV  ', 230.0000,1,   1,   1,   1,1.01500,   1.7000
     9,'VSC-VDC-REC ', 230.0000,1,   1,   1,   1,0.98500,  -1.7000
    10,'MT-REC-A    ', 230.0000,1,   1,   1,   1,0.98800,  -1.4000
    11,'MT-REC-B    ', 230.0000,1,   1,   1,   1,0.99200,  -0.9000
    12,'MT-VDC-INV  ', 230.0000,1,   1,   1,   1,1.02000,   2.3000
0 / END OF BUS DATA, BEGIN LOAD DATA
0 / END OF LOAD DATA, BEGIN FIXED SHUNT DATA
0 / END OF FIXED SHUNT DATA, BEGIN GENERATOR DATA
     1,'1 ',     0.000,     0.000,  9999.000, -9999.000,1.00000,     0,  1000.000, 0.00000E+0, 2.00000E-1, 0.00000E+0, 0.00000E+0,1.00000,1, 100.0,   900.000,     0.000
0 / END OF GENERATOR DATA, BEGIN BRANCH DATA
     1,     2,'1 ', 2.00000E-3, 2.00000E-2, 0.00000E+0,'                    ',  400.00,  440.00,  480.00,    0.00,    0.00,    0.00,    0.00,    0.00,    0.00,    0.00,    0.00,    0.00,  0.00000,  0.00000,  0.00000,  0.00000,1,1,   0.00,   1,1.0000
     1,     3,'1 ', 2.00000E-3, 2.00000E-2, 0.00000E+0,'                    ',  400.00,  440.00,  480.00,    0.00,    0.00,    0.00,    0.00,    0.00,    0.00,    0.00,    0.00,    0.00,  0.00000,  0.00000,  0.00000,  0.00000,1,1,   0.00,   1,1.0000
     1,     4,'1 ', 2.00000E-3, 2.00000E-2, 0.00000E+0,'                    ',  400.00,  440.00,  480.00,    0.00,    0.00,    0.00,    0.00,    0.00,    0.00,    0.00,    0.00,    0.00,  0.00000,  0.00000,  0.00000,  0.00000,1,1,   0.00,   1,1.0000
     1,     5,'1 ', 2.00000E-3, 2.00000E-2, 0.00000E+0,'                    ',  400.00,  440.00,  480.00,    0.00,    0.00,    0.00,    0.00,    0.00,    0.00,    0.00,    0.00,    0.00,  0.00000,  0.00000,  0.00000,  0.00000,1,1,   0.00,   1,1.0000
     1,     6,'1 ', 2.00000E-3, 2.00000E-2, 0.00000E+0,'                    ',  400.00,  440.00,  480.00,    0.00,    0.00,    0.00,    0.00,    0.00,    0.00,    0.00,    0.00,    0.00,  0.00000,  0.00000,  0.00000,  0.00000,1,1,   0.00,   1,1.0000
     1,     7,'1 ', 2.00000E-3, 2.00000E-2, 0.00000E+0,'                    ',  400.00,  440.00,  480.00,    0.00,    0.00,    0.00,    0.00,    0.00,    0.00,    0.00,    0.00,    0.00,  0.00000,  0.00000,  0.00000,  0.00000,1,1,   0.00,   1,1.0000
     1,     8,'1 ', 2.00000E-3, 2.00000E-2, 0.00000E+0,'                    ',  400.00,  440.00,  480.00,    0.00,    0.00,    0.00,    0.00,    0.00,    0.00,    0.00,    0.00,    0.00,  0.00000,  0.00000,  0.00000,  0.00000,1,1,   0.00,   1,1.0000
     1,     9,'1 ', 2.00000E-3, 2.00000E-2, 0.00000E+0,'                    ',  400.00,  440.00,  480.00,    0.00,    0.00,    0.00,    0.00,    0.00,    0.00,    0.00,    0.00,    0.00,  0.00000,  0.00000,  0.00000,  0.00000,1,1,   0.00,   1,1.0000
     1,    10,'1 ', 2.00000E-3, 2.00000E-2, 0.00000E+0,'                    ',  400.00,  440.00,  480.00,    0.00,    0.00,    0.00,    0.00,    0.00,    0.00,    0.00,    0.00,    0.00,  0.00000,  0.00000,  0.00000,  0.00000,1,1,   0.00,   1,1.0000
     1,    11,'1 ', 2.00000E-3, 2.00000E-2, 0.00000E+0,'                    ',  400.00,  440.00,  480.00,    0.00,    0.00,    0.00,    0.00,    0.00,    0.00,    0.00,    0.00,    0.00,  0.00000,  0.00000,  0.00000,  0.00000,1,1,   0.00,   1,1.0000
     1,    12,'1 ', 2.00000E-3, 2.00000E-2, 0.00000E+0,'                    ',  400.00,  440.00,  480.00,    0.00,    0.00,    0.00,    0.00,    0.00,    0.00,    0.00,    0.00,    0.00,  0.00000,  0.00000,  0.00000,  0.00000,1,1,   0.00,   1,1.0000
0 / END OF BRANCH DATA, BEGIN TRANSFORMER DATA
0 / END OF TRANSFORMER DATA, BEGIN AREA DATA
0 / END OF AREA DATA, BEGIN TWO-TERMINAL DC DATA
'T2-MW       ',1,   2.5000,   200.00,   400.00,   350.00,   0.0000,  0.10000,'I',     0.00,  20,  1.00000
     2,  1, 20.000, 10.000, 0.0000, 5.0000, 230.00,1.00000,1.00000,1.10000,0.90000,0.00625,     0,  0,     0,     0,'1 ', 0.0000
     3,  1, 20.000, 17.000, 0.0000, 5.0000, 230.00,1.00000,1.00000,1.10000,0.90000,0.00625,     0,  0,     0,     0,'1 ', 0.0000
'T2-AMP      ',2,   2.5000,   500.00,   400.00,   350.00,   0.0000,  0.10000,'I',     0.00,  20,  1.00000
     4,  1, 20.000, 10.000, 0.0000, 5.0000, 230.00,1.00000,1.00000,1.10000,0.90000,0.00625,     0,  0,     0,     0,'1 ', 0.0000
     5,  1, 20.000, 17.000, 0.0000, 5.0000, 230.00,1.00000,1.00000,1.10000,0.90000,0.00625,     0,  0,     0,     0,'1 ', 0.0000
'T2-BLOCKED  ',0,   2.5000,   300.00,   400.00,   350.00,   0.0000,  0.10000,'I',     0.00,  20,  1.00000
     6,  1, 20.000, 10.000, 0.0000, 5.0000, 230.00,1.00000,1.00000,1.10000,0.90000,0.00625,     0,  0,     0,     0,'1 ', 0.0000
     7,  1, 20.000, 17.000, 0.0000, 5.0000, 230.00,1.00000,1.00000,1.10000,0.90000,0.00625,     0,  0,     0,     0,'1 ', 0.0000
0 / END OF TWO-TERMINAL DC DATA, BEGIN VSC DC LINE DATA
'VSC-LINK    ',1, 0.5000,   1,1.0000,   0,1.0000,   0,1.0000,   0,1.0000
     8,   2,   2,-150.00,0.95000,100.000,  0.100, 50.000, 400.00,1200.00,0.10000, 100.00,-100.00,     8,   0, 100.0
     9,   1,   1, 350.00,1.00000, 90.000,  0.150, 40.000, 400.00,1200.00,0.15000, 150.00,-150.00,     9,   0, 100.0
0 / END OF VSC DC LINE DATA, BEGIN IMPEDANCE CORRECTION DATA
0 / END OF IMPEDANCE CORRECTION DATA, BEGIN MULTI-TERMINAL DC DATA
'MTDC-3TERM  ',    3,    3,    2,    1,    12,  350.00,     0
    10, 1, 20.000,  8.000, 0.0000,10.0000, 230.00,1.00000,1.00000,1.10000,0.90000,0.01000,  120.00, 1.0000,0.00000, 1
    11, 1, 20.000,  8.000, 0.0000,10.0000, 230.00,1.00000,1.00000,1.10000,0.90000,0.01000,   80.00, 1.0000,0.00000, 1
    12, 1, 20.000, 18.000, 0.0000,10.0000, 230.00,1.00000,1.00000,1.10000,0.90000,0.01000,  350.00, 1.0000,0.00000, 2
 1,    10,   1,   1,'MDC1        ', 0, 0.0000,   1
 2,    11,   1,   1,'MDC2        ', 0, 0.0000,   1
 3,    12,   1,   1,'MDC3        ', 0, 0.0000,   1
   1,  3,'1 ',    1, 5.0000,   0.00
   2,  3,'1 ',    1, 5.0000,   0.00
0 / END OF MULTI-TERMINAL DC DATA, BEGIN MULTI-SECTION LINE DATA
0 / END OF MULTI-SECTION LINE DATA, BEGIN ZONE DATA
0 / END OF ZONE DATA, BEGIN INTER-AREA TRANSFER DATA
0 / END OF INTER-AREA TRANSFER DATA, BEGIN OWNER DATA
0 / END OF OWNER DATA, BEGIN FACTS DEVICE DATA
0 / END OF FACTS DEVICE DATA, BEGIN SWITCHED SHUNT DATA
0 / END OF SWITCHED SHUNT DATA, BEGIN GNE DATA
0 / END OF GNE DATA, BEGIN INDUCTION MACHINE DATA
0 / END OF INDUCTION MACHINE DATA, BEGIN Q RECORD
Q
